
 OpenBabel03022502013D

 41 41  0  0  1  0  0  0  0  0999 V2000
    7.6899    0.5330    3.3270 C   0  0  0  0  0  0  0  0  0  0  0  0
    6.8202    0.7695    2.2015 N   0  0  0  0  0  0  0  0  0  0  0  0
    5.5020    0.3607    2.2393 C   0  0  0  0  0  0  0  0  0  0  0  0
    5.0601   -0.3461    3.1423 O   0  0  0  0  0  0  0  0  0  0  0  0
    4.6340    0.8801    1.0681 C   0  0  2  0  0  0  0  0  0  0  0  0
    3.1373    0.5920    1.2655 C   0  0  0  0  0  0  0  0  0  0  0  0
    2.5320    1.2738    2.4992 C   0  0  0  0  0  0  0  0  0  0  0  0
    1.0344    0.9897    2.6109 C   0  0  0  0  0  0  0  0  0  0  0  0
    0.4967    1.6221    3.8045 N   0  0  0  0  0  0  0  0  0  0  0  0
   -0.8153    1.5098    4.1297 C   0  0  0  0  0  0  0  0  0  0  0  0
   -1.7257    0.9386    3.4082 N   0  0  0  0  0  0  0  0  0  0  0  0
   -2.9955    1.1077    4.1656 C   0  0  3  0  0  0  0  0  0  0  0  0
   -3.9895    1.8538    3.2988 C   0  0  0  0  0  0  0  0  0  0  0  0
   -2.5807    1.9024    5.3825 C   0  0  0  0  0  0  0  0  0  0  0  0
   -3.2953    2.3606    6.2586 O   0  0  0  0  0  0  0  0  0  0  0  0
   -1.2366    2.0391    5.2901 N   0  0  0  0  0  0  0  0  0  0  0  0
    5.0860    0.2414   -0.1721 N   0  0  0  0  0  0  0  0  0  0  0  0
    5.8452    0.8964   -1.1086 C   0  0  0  0  0  0  0  0  0  0  0  0
    6.2004    0.0632   -2.3153 C   0  0  0  0  0  0  0  0  0  0  0  0
    6.1821    2.0689   -0.9991 O   0  0  0  0  0  0  0  0  0  0  0  0
    8.7236    0.7137    3.0261 H   0  0  0  0  0  0  0  0  0  0  0  0
    7.5778   -0.4948    3.6852 H   0  0  0  0  0  0  0  0  0  0  0  0
    7.4134    1.2214    4.1315 H   0  0  0  0  0  0  0  0  0  0  0  0
    7.1002    1.4328    1.4844 H   0  0  0  0  0  0  0  0  0  0  0  0
    4.7832    1.9640    0.9988 H   0  0  0  0  0  0  0  0  0  0  0  0
    2.5970    0.9364    0.3735 H   0  0  0  0  0  0  0  0  0  0  0  0
    2.9704   -0.4913    1.3277 H   0  0  0  0  0  0  0  0  0  0  0  0
    2.7054    2.3557    2.4533 H   0  0  0  0  0  0  0  0  0  0  0  0
    3.0188    0.9193    3.4136 H   0  0  0  0  0  0  0  0  0  0  0  0
    0.8615   -0.0922    2.6535 H   0  0  0  0  0  0  0  0  0  0  0  0
    0.5190    1.3822    1.7269 H   0  0  0  0  0  0  0  0  0  0  0  0
    1.1481    1.7430    4.5698 H   0  0  0  0  0  0  0  0  0  0  0  0
   -3.3771    0.1303    4.4806 H   0  0  0  0  0  0  0  0  0  0  0  0
   -3.5965    2.8315    2.9976 H   0  0  0  0  0  0  0  0  0  0  0  0
   -4.9302    2.0218    3.8311 H   0  0  0  0  0  0  0  0  0  0  0  0
   -4.2027    1.2882    2.3855 H   0  0  0  0  0  0  0  0  0  0  0  0
   -0.6975    2.5803    5.9403 H   0  0  0  0  0  0  0  0  0  0  0  0
    4.9762   -0.7629   -0.2465 H   0  0  0  0  0  0  0  0  0  0  0  0
    6.3031   -0.9925   -2.0489 H   0  0  0  0  0  0  0  0  0  0  0  0
    7.1566    0.4049   -2.7226 H   0  0  0  0  0  0  0  0  0  0  0  0
    5.4229    0.1694   -3.0776 H   0  0  0  0  0  0  0  0  0  0  0  0
  1  2  1  0  0  0  0
  1 21  1  0  0  0  0
  1 22  1  0  0  0  0
  1 23  1  0  0  0  0
  2  3  1  0  0  0  0
  2 24  1  0  0  0  0
  3  4  2  0  0  0  0
  5 17  1  0  0  0  0
  5  6  1  0  0  0  0
  5  3  1  0  0  0  0
  5 25  1  6  0  0  0
  6  7  1  0  0  0  0
  6 26  1  0  0  0  0
  6 27  1  0  0  0  0
  7  8  1  0  0  0  0
  7 28  1  0  0  0  0
  7 29  1  0  0  0  0
  8  9  1  0  0  0  0
  8 30  1  0  0  0  0
  8 31  1  0  0  0  0
  9 10  1  0  0  0  0
  9 32  1  0  0  0  0
 10 11  2  0  0  0  0
 10 16  1  0  0  0  0
 11 12  1  0  0  0  0
 12 13  1  0  0  0  0
 12 14  1  0  0  0  0
 12 33  1  0  0  0  0
 13 34  1  0  0  0  0
 13 35  1  0  0  0  0
 13 36  1  0  0  0  0
 14 15  2  0  0  0  0
 14 16  1  0  0  0  0
 16 37  1  0  0  0  0
 17 18  1  0  0  0  0
 17 38  1  0  0  0  0
 18 19  1  0  0  0  0
 18 20  2  0  0  0  0
 19 39  1  0  0  0  0
 19 40  1  0  0  0  0
 19 41  1  0  0  0  0
M  END

> <RosettaParamsInstructions>
M  ROOT 17
M  POLY_N_BB 17
M  POLY_CA_BB 5
M  POLY_C_BB 3
M  POLY_O_BB 4
M  POLY_IGNORE 21 22 23 24 1 20 19 39 40 41
M  POLY_UPPER 2
M  POLY_LOWER 18
M  POLY_CHG 0
M  POLY_PROPERTIES PROTEIN POLYMER ALPHA_AA AROMATIC L_AA CYCLIC
M  END

$$$$
